voltage-tiling/data/p13u_violations/p13uhs23_1247--p13udt28279/Lines.dss
New Line.l(r:p13udt1342lv-p13ulv97242) Units=km Length=0.0124245 bus1=p13udt1342lv.1.2 bus2=p13ulv97242.1.2 switch=n enabled=y phases=2 Linecode=1P_UG_AL_1/0_Brenau_2

New Line.l(r:p13udm5802-p13ulv3487) Units=km Length=0.015095 bus1=p13udm5802.1.2 bus2=p13ulv3487.1.2 switch=n enabled=y phases=2 Linecode=1P_UG_AL_1/0_Brenau_2

New Line.l(r:p13udm5802-p13ulv97228) Units=km Length=0.0125256 bus1=p13udm5802.1.2 bus2=p13ulv97228.1.2 switch=n enabled=y phases=2 Linecode=1P_UG_AL_1/0_Brenau_2

New Line.l(r:p13udm5802-p13udt1342lv) Units=km Length=0.0095659 bus1=p13udt1342lv.1.2 bus2=p13udm5802.1.2 switch=n enabled=y phases=2 Linecode=1P_UG_AL_4/0_Sweetbriar_2

New Line.l(r:p13udm5803-p13ulv94246) Units=km Length=0.0164851 bus1=p13udm5803.1.2 bus2=p13ulv94246.1.2 switch=n enabled=y phases=2 Linecode=1P_UG_AL_1/0_Brenau_2

New Line.l(r:p13udm5803-p13ulv97259) Units=km Length=0.0131103 bus1=p13udm5803.1.2 bus2=p13ulv97259.1.2 switch=n enabled=y phases=2 Linecode=1P_UG_AL_1/0_Brenau_2

New Line.l(r:p13udm5803-p13udt1342lv) Units=km Length=0.0095659 bus1=p13udt1342lv.1.2 bus2=p13udm5803.1.2 switch=n enabled=y phases=2 Linecode=1P_UG_AL_1/0_Brenau_2

New Line.l(r:p13udt1343lv-p13ulv99081) Units=km Length=0.012900100000000001 bus1=p13udt1343lv.1.2 bus2=p13ulv99081.1.2 switch=n enabled=y phases=2 Linecode=1P_UG_AL_1/0_Brenau_2

New Line.l(r:p13udm5807-p13ulv3488) Units=km Length=0.0131379 bus1=p13udm5807.1.2 bus2=p13ulv3488.1.2 switch=n enabled=y phases=2 Linecode=1P_UG_AL_1/0_Brenau_2

New Line.l(r:p13udm5807-p13udt1343lv) Units=km Length=0.00862353 bus1=p13udt1343lv.1.2 bus2=p13udm5807.1.2 switch=n enabled=y phases=2 Linecode=1P_UG_AL_1/0_Brenau_2

New Line.l(r:p13udm5808-p13ulv94128) Units=km Length=0.0116826 bus1=p13udm5808.1.2 bus2=p13ulv94128.1.2 switch=n enabled=y phases=2 Linecode=1P_UG_AL_1/0_Brenau_2

New Line.l(r:p13udm5808-p13ulv99066) Units=km Length=0.0144728 bus1=p13udm5808.1.2 bus2=p13ulv99066.1.2 switch=n enabled=y phases=2 Linecode=1P_UG_AL_1/0_Brenau_2

New Line.l(r:p13udm5808-p13ulv99073) Units=km Length=0.0378121 bus1=p13udm5808.1.2 bus2=p13ulv99073.1.2 switch=n enabled=y phases=2 Linecode=1P_UG_AL_1/0_Brenau_2

New Line.l(r:p13udm5808-p13udt1343lv) Units=km Length=0.00862353 bus1=p13udt1343lv.1.2 bus2=p13udm5808.1.2 switch=n enabled=y phases=2 Linecode=1P_UG_AL_1/0_Brenau_2

New Line.l(r:p13udt1344lv-p13ulv97191) Units=km Length=0.0131081 bus1=p13udt1344lv.1.2 bus2=p13ulv97191.1.2 switch=n enabled=y phases=2 Linecode=1P_UG_AL_1/0_Brenau_2

New Line.l(r:p13udt1344lv-p13ulv99096) Units=km Length=0.01345 bus1=p13udt1344lv.1.2 bus2=p13ulv99096.1.2 switch=n enabled=y phases=2 Linecode=1P_UG_AL_4/0_Sweetbriar_2

New Line.l(r:p13udm5812-p13ulv3489) Units=km Length=0.0145315 bus1=p13udm5812.1.2 bus2=p13ulv3489.1.2 switch=n enabled=y phases=2 Linecode=1P_UG_AL_1/0_Brenau_2

New Line.l(r:p13udm5812-p13udt1344lv) Units=km Length=0.00862353 bus1=p13udt1344lv.1.2 bus2=p13udm5812.1.2 switch=n enabled=y phases=2 Linecode=1P_UG_AL_1/0_Brenau_2

New Line.l(r:p13udm5817-p13ulv97508) Units=km Length=0.013415 bus1=p13udm5817.1.2 bus2=p13ulv97508.1.2 switch=n enabled=y phases=2 Linecode=1P_UG_AL_1/0_Brenau_2

New Line.l(r:p13udm5817-p13ulv97550) Units=km Length=0.0107504 bus1=p13udm5817.1.2 bus2=p13ulv97550.1.2 switch=n enabled=y phases=2 Linecode=1P_UG_AL_1/0_Brenau_2

New Line.l(r:p13udm5815-p13ulv3490) Units=km Length=0.0154112 bus1=p13udm5815.1.2 bus2=p13ulv3490.1.2 switch=n enabled=y phases=2 Linecode=1P_UG_AL_1/0_Brenau_2

New Line.l(r:p13udm5815-p13udm5817) Units=km Length=0.00958658 bus1=p13udm5817.1.2 bus2=p13udm5815.1.2 switch=n enabled=y phases=2 Linecode=1P_UG_AL_1/0_Brenau_2

New Line.l(r:p13udm5817-p13udt1345lv) Units=km Length=0.00958658 bus1=p13udt1345lv.1.2 bus2=p13udm5817.1.2 switch=n enabled=y phases=2 Linecode=1P_UG_AL_4/0_Sweetbriar_2

New Line.l(r:p13udm5818-p13ulv97525) Units=km Length=0.010678000000000002 bus1=p13udm5818.1.2 bus2=p13ulv97525.1.2 switch=n enabled=y phases=2 Linecode=1P_UG_AL_2/0_Converse_2

New Line.l(r:p13udm5816-p13ulv97496) Units=km Length=0.00397775 bus1=p13udm5816.1.2 bus2=p13ulv97496.1.2 switch=n enabled=y phases=2 Linecode=1P_UG_AL_1/0_Brenau_2

New Line.l(r:p13udm5816-p13udm5818) Units=km Length=0.00999592 bus1=p13udm5818.1.2 bus2=p13udm5816.1.2 switch=n enabled=y phases=2 Linecode=1P_UG_AL_1/0_Brenau_2

New Line.l(r:p13udm5818-p13udt1345lv) Units=km Length=0.00959388 bus1=p13udt1345lv.1.2 bus2=p13udm5818.1.2 switch=n enabled=y phases=2 Linecode=1P_UG_AL_4/0_Sweetbriar_2

New Line.l(r:p13udt1346lv-p13ulv97423) Units=km Length=0.009152220000000003 bus1=p13udt1346lv.1.2 bus2=p13ulv97423.1.2 switch=n enabled=y phases=2 Linecode=1P_UG_AL_1/0_Brenau_2

New Line.l(r:p13udm5821-p13ulv3492) Units=km Length=0.00760016 bus1=p13udm5821.1.2 bus2=p13ulv3492.1.2 switch=n enabled=y phases=2 Linecode=1P_UG_AL_1/0_Brenau_2

New Line.l(r:p13udm5821-p13ulv97471) Units=km Length=0.00714986 bus1=p13udm5821.1.2 bus2=p13ulv97471.1.2 switch=n enabled=y phases=2 Linecode=1P_UG_AL_1/0_Brenau_2

New Line.l(r:p13udm5820-p13ulv3491) Units=km Length=0.00820402 bus1=p13udm5820.1.2 bus2=p13ulv3491.1.2 switch=n enabled=y phases=2 Linecode=1P_UG_AL_1/0_Brenau_2

New Line.l(r:p13udm5827-p13ulv97480) Units=km Length=0.00803562 bus1=p13udm5827.1.2 bus2=p13ulv97480.1.2 switch=n enabled=y phases=2 Linecode=1P_UG_AL_1/0_Brenau_2

New Line.l(r:p13udm5820-p13udm5827) Units=km Length=0.00999592 bus1=p13udm5820.1.2 bus2=p13udm5827.1.2 switch=n enabled=y phases=2 Linecode=1P_UG_AL_1/0_Brenau_2

New Line.l(r:p13udm5820-p13udm5821) Units=km Length=0.0100033 bus1=p13udm5821.1.2 bus2=p13udm5820.1.2 switch=n enabled=y phases=2 Linecode=1P_UG_AL_4/0_Sweetbriar_2

New Line.l(r:p13udm5821-p13udt1346lv) Units=km Length=0.0099892 bus1=p13udt1346lv.1.2 bus2=p13udm5821.1.2 switch=n enabled=y phases=2 Linecode=1P_UG_AL_4/0_Sweetbriar_2

New Line.l(r:p13udm5823-p13ulv97411) Units=km Length=0.0081095 bus1=p13udm5823.1.2 bus2=p13ulv97411.1.2 switch=n enabled=y phases=2 Linecode=1P_UG_AL_1/0_Brenau_2

New Line.l(r:p13udm5822-p13ulv97398) Units=km Length=0.00875969 bus1=p13udm5822.1.2 bus2=p13ulv97398.1.2 switch=n enabled=y phases=2 Linecode=1P_UG_AL_1/0_Brenau_2

New Line.l(r:p13udm5822-p13ulv97440) Units=km Length=0.00437416 bus1=p13udm5822.1.2 bus2=p13ulv97440.1.2 switch=n enabled=y phases=2 Linecode=1P_UG_AL_1/0_Brenau_2

New Line.l(r:p13udm5822-p13udm5823) Units=km Length=0.0100033 bus1=p13udm5823.1.2 bus2=p13udm5822.1.2 switch=n enabled=y phases=2 Linecode=1P_UG_AL_1/0_Brenau_2

New Line.l(r:p13udm5823-p13udt1346lv) Units=km Length=0.00999592 bus1=p13udt1346lv.1.2 bus2=p13udm5823.1.2 switch=n enabled=y phases=2 Linecode=1P_UG_AL_4/0_Sweetbriar_2

New Line.l(r:p13udm5828-p13ulv3493) Units=km Length=0.012185000000000001 bus1=p13udm5828.1.2 bus2=p13ulv3493.1.2 switch=n enabled=y phases=2 Linecode=1P_UG_AL_1/0_Brenau_2

New Line.l(r:p13udm5828-p13ulv99229) Units=km Length=0.0139767 bus1=p13udm5828.1.2 bus2=p13ulv99229.1.2 switch=n enabled=y phases=2 Linecode=1P_UG_AL_1/0_Brenau_2

New Line.l(r:p13udm5828-p13udt1347lv) Units=km Length=0.009697930000000002 bus1=p13udt1347lv.1.2 bus2=p13udm5828.1.2 switch=n enabled=y phases=2 Linecode=1P_UG_AL_1/0_Brenau_2

New Line.l(r:p13udm5831-p13ulv99275) Units=km Length=0.0123082 bus1=p13udm5831.1.2 bus2=p13ulv99275.1.2 switch=n enabled=y phases=2 Linecode=1P_UG_AL_1/0_Brenau_2

New Line.l(r:p13udm5829-p13ulv3495) Units=km Length=0.0129899 bus1=p13udm5829.1.2 bus2=p13ulv3495.1.2 switch=n enabled=y phases=2 Linecode=1P_UG_AL_1/0_Brenau_2

New Line.l(r:p13udm5829-p13udm5831) Units=km Length=0.009698600000000002 bus1=p13udm5831.1.2 bus2=p13udm5829.1.2 switch=n enabled=y phases=2 Linecode=1P_UG_AL_1/0_Brenau_2

New Line.l(r:p13udm5831-p13udt1347lv) Units=km Length=0.00970532 bus1=p13udt1347lv.1.2 bus2=p13udm5831.1.2 switch=n enabled=y phases=2 Linecode=1P_UG_AL_2/0_Converse_2

New Line.l(r:p13udt1348lv-p13ulv3494) Units=km Length=0.0133613 bus1=p13udt1348lv.1.2 bus2=p13ulv3494.1.2 switch=n enabled=y phases=2 Linecode=1P_UG_AL_1/0_Brenau_2

New Line.l(r:p13udm5833-p13ulv14618) Units=km Length=0.0119551 bus1=p13udm5833.1.2 bus2=p13ulv14618.1.2 switch=n enabled=y phases=2 Linecode=1P_UG_AL_1/0_Brenau_2

New Line.l(r:p13udm5834-p13ulv99179) Units=km Length=0.011457 bus1=p13udm5834.1.2 bus2=p13ulv99179.1.2 switch=n enabled=y phases=2 Linecode=1P_UG_AL_1/0_Brenau_2

New Line.l(r:p13udm5833-p13udm5834) Units=km Length=0.00984124 bus1=p13udm5833.1.2 bus2=p13udm5834.1.2 switch=n enabled=y phases=2 Linecode=1P_UG_AL_1/0_Brenau_2

New Line.l(r:p13udm5833-p13udt1348lv) Units=km Length=0.00984795 bus1=p13udt1348lv.1.2 bus2=p13udm5833.1.2 switch=n enabled=y phases=2 Linecode=1P_UG_AL_4/0_Sweetbriar_2

New Line.l(r:p13udm5835-p13ulv99214) Units=km Length=0.0140314 bus1=p13udm5835.1.2 bus2=p13ulv99214.1.2 switch=n enabled=y phases=2 Linecode=1P_UG_AL_1/0_Brenau_2

New Line.l(r:p13udm5835-p13udt1348lv) Units=km Length=0.00967846 bus1=p13udt1348lv.1.2 bus2=p13udm5835.1.2 switch=n enabled=y phases=2 Linecode=1P_UG_AL_1/0_Brenau_2

New Line.l(r:p13udm5836-p13ulv3497) Units=km Length=0.0158357 bus1=p13udm5836.1.2 bus2=p13ulv3497.1.2 switch=n enabled=y phases=2 Linecode=1P_UG_AL_1/0_Brenau_2

New Line.l(r:p13udm5836-p13ulv99189) Units=km Length=0.0111936 bus1=p13udm5836.1.2 bus2=p13ulv99189.1.2 switch=n enabled=y phases=2 Linecode=1P_UG_AL_1/0_Brenau_2

New Line.l(r:p13udm5838-p13ulv14617) Units=km Length=0.0118723 bus1=p13udm5838.1.2 bus2=p13ulv14617.1.2 switch=n enabled=y phases=2 Linecode=1P_UG_AL_2/0_Converse_2

New Line.l(r:p13udm5838-p13ulv99227) Units=km Length=0.0131098 bus1=p13udm5838.1.2 bus2=p13ulv99227.1.2 switch=n enabled=y phases=2 Linecode=1P_UG_AL_1/0_Brenau_2

New Line.l(r:p13udm5836-p13udm5838) Units=km Length=0.00967846 bus1=p13udm5836.1.2 bus2=p13udm5838.1.2 switch=n enabled=y phases=2 Linecode=1P_UG_AL_4/0_Sweetbriar_2_2

New Line.l(r:p13udm5836-p13udt1349lv) Units=km Length=0.00968516 bus1=p13udt1349lv.1.2 bus2=p13udm5836.1.2 switch=n enabled=y phases=2 Linecode=1P_UG_AL_4/0_Sweetbriar_2_3

New Line.l(r:p13udm5837-p13ulv3498) Units=km Length=0.01567 bus1=p13udm5837.1.2 bus2=p13ulv3498.1.2 switch=n enabled=y phases=2 Linecode=1P_UG_AL_1/0_Brenau_2

New Line.l(r:p13udm5837-p13ulv99198) Units=km Length=0.033041100000000004 bus1=p13udm5837.1.2 bus2=p13ulv99198.1.2 switch=n enabled=y phases=2 Linecode=1P_UG_AL_1/0_Brenau_2

New Line.l(r:p13udm5837-p13ulv99213) Units=km Length=0.012943 bus1=p13udm5837.1.2 bus2=p13ulv99213.1.2 switch=n enabled=y phases=2 Linecode=1P_UG_AL_1/0_Brenau_2

New Line.l(r:p13udm5843-p13ulv99230) Units=km Length=0.015339 bus1=p13udm5843.1.2 bus2=p13ulv99230.1.2 switch=n enabled=y phases=2 Linecode=1P_UG_AL_1/0_Brenau_2

New Line.l(r:p13udm5837-p13udm5843) Units=km Length=0.00967846 bus1=p13udm5837.1.2 bus2=p13udm5843.1.2 switch=n enabled=y phases=2 Linecode=1P_UG_AL_1/0_Brenau_2

New Line.l(r:p13udm5837-p13udt1349lv) Units=km Length=0.00967846 bus1=p13udt1349lv.1.2 bus2=p13udm5837.1.2 switch=n enabled=y phases=2 Linecode=1P_UG_AL_4/0_Sweetbriar_2

New Line.l(r:p13udt1350lv-p13ulv99122) Units=km Length=0.0186756 bus1=p13udt1350lv.1.2 bus2=p13ulv99122.1.2 switch=n enabled=y phases=2 Linecode=1P_UG_AL_1/0_Brenau_2

New Line.l(r:p13udm5845-p13ulv99111) Units=km Length=0.019009700000000004 bus1=p13udm5845.1.2 bus2=p13ulv99111.1.2 switch=n enabled=y phases=2 Linecode=1P_UG_AL_1/0_Brenau_2

New Line.l(r:p13udm5845-p13ulv99182) Units=km Length=0.0097872 bus1=p13udm5845.1.2 bus2=p13ulv99182.1.2 switch=n enabled=y phases=2 Linecode=1P_UG_AL_1/0_Brenau_2

New Line.l(r:p13udm5848-p13ulv99160) Units=km Length=0.010196 bus1=p13udm5848.1.2 bus2=p13ulv99160.1.2 switch=n enabled=y phases=2 Linecode=1P_UG_AL_1/0_Brenau_2

New Line.l(r:p13udm5847-p13ulv99149) Units=km Length=0.00952442 bus1=p13udm5847.1.2 bus2=p13ulv99149.1.2 switch=n enabled=y phases=2 Linecode=1P_UG_AL_1/0_Brenau_2

New Line.l(r:p13udm5847-p13udm5848) Units=km Length=0.0179364 bus1=p13udm5848.1.2 bus2=p13udm5847.1.2 switch=n enabled=y phases=2 Linecode=1P_UG_AL_1/0_Brenau_2

New Line.l(r:p13udm5845-p13udm5848) Units=km Length=0.00896488 bus1=p13udm5845.1.2 bus2=p13udm5848.1.2 switch=n enabled=y phases=2 Linecode=1P_UG_AL_1/0_Brenau_2

New Line.l(r:p13udm5845-p13udt1350lv) Units=km Length=0.00897156 bus1=p13udt1350lv.1.2 bus2=p13udm5845.1.2 switch=n enabled=y phases=2 Linecode=1P_UG_AL_4/0_Sweetbriar_2

New Line.l(r:p13udm5850-p13ulv99196) Units=km Length=0.0110506 bus1=p13udm5850.1.2 bus2=p13ulv99196.1.2 switch=n enabled=y phases=2 Linecode=1P_UG_AL_1/0_Brenau_2

New Line.l(r:p13udm5851-p13ulv99215) Units=km Length=0.00978931 bus1=p13udm5851.1.2 bus2=p13ulv99215.1.2 switch=n enabled=y phases=2 Linecode=1P_UG_AL_1/0_Brenau_2

New Line.l(r:p13udm5844-p13ulv3499) Units=km Length=0.0111408 bus1=p13udm5844.1.2 bus2=p13ulv3499.1.2 switch=n enabled=y phases=2 Linecode=1P_UG_AL_1/0_Brenau_2

New Line.l(r:p13udm5852-p13ulv99238) Units=km Length=0.00969355 bus1=p13udm5852.1.2 bus2=p13ulv99238.1.2 switch=n enabled=y phases=2 Linecode=1P_UG_AL_1/0_Brenau_2

New Line.l(r:p13udm5844-p13udm5852) Units=km Length=0.0188612 bus1=p13udm5844.1.2 bus2=p13udm5852.1.2 switch=n enabled=y phases=2 Linecode=1P_UG_AL_1/0_Brenau_2

New Line.l(r:p13udm5844-p13udm5851) Units=km Length=0.00896488 bus1=p13udm5851.1.2 bus2=p13udm5844.1.2 switch=n enabled=y phases=2 Linecode=1P_UG_AL_1/0_Brenau_2

New Line.l(r:p13udm5850-p13udm5851) Units=km Length=0.00896413 bus1=p13udm5850.1.2 bus2=p13udm5851.1.2 switch=n enabled=y phases=2 Linecode=1P_UG_AL_2/0_Converse_2

New Line.l(r:p13udm5850-p13udt1350lv) Units=km Length=0.00896488 bus1=p13udt1350lv.1.2 bus2=p13udm5850.1.2 switch=n enabled=y phases=2 Linecode=1P_UG_AL_4/0_Sweetbriar_2

New Line.l(r:p13udm28274-p13ulv14553) Units=km Length=0.0153395 bus1=p13udm28274.1.2 bus2=p13ulv14553.1.2 switch=n enabled=y phases=2 Linecode=1P_UG_AL_1/0_Brenau_2

New Line.l(r:p13udm28273-p13ulv14552) Units=km Length=0.0101473 bus1=p13udm28273.1.2 bus2=p13ulv14552.1.2 switch=n enabled=y phases=2 Linecode=1P_UG_AL_1/0_Brenau_2

New Line.l(r:p13udm28278-p13ulv92272) Units=km Length=0.0356952 bus1=p13udm28278.1.2 bus2=p13ulv92272.1.2 switch=n enabled=y phases=2 Linecode=1P_UG_AL_1/0_Brenau_2

New Line.l(r:p13udm28273-p13udm28278) Units=km Length=0.0219724 bus1=p13udm28273.1.2 bus2=p13udm28278.1.2 switch=n enabled=y phases=2 Linecode=1P_UG_AL_1/0_Brenau_2

New Line.l(r:p13udm28273-p13udm28274) Units=km Length=0.00759416 bus1=p13udm28274.1.2 bus2=p13udm28273.1.2 switch=n enabled=y phases=2 Linecode=1P_UG_AL_1/0_Brenau_2

New Line.l(r:p13udm28274-p13udt6552lv) Units=km Length=0.00919288 bus1=p13udt6552lv.1.2 bus2=p13udm28274.1.2 switch=n enabled=y phases=2 Linecode=1P_UG_AL_1/0_Brenau_2

New Line.l(r:p13udm28275-p13ulv14554) Units=km Length=0.0115268 bus1=p13udm28275.1.2 bus2=p13ulv14554.1.2 switch=n enabled=y phases=2 Linecode=1P_UG_AL_1/0_Brenau_2

New Line.l(r:p13udm28275-p13ulv92269) Units=km Length=0.00944768 bus1=p13udm28275.1.2 bus2=p13ulv92269.1.2 switch=n enabled=y phases=2 Linecode=1P_UG_AL_1/0_Brenau_2

New Line.l(r:p13udm28276-p13ulv14555) Units=km Length=0.011180500000000001 bus1=p13udm28276.1.2 bus2=p13ulv14555.1.2 switch=n enabled=y phases=2 Linecode=1P_UG_AL_1/0_Brenau_2

New Line.l(r:p13udm28275-p13udm28276) Units=km Length=0.00919868 bus1=p13udm28275.1.2 bus2=p13udm28276.1.2 switch=n enabled=y phases=2 Linecode=1P_UG_AL_1/0_Brenau_2

New Line.l(r:p13udm28275-p13udt6552lv) Units=km Length=0.00919288 bus1=p13udt6552lv.1.2 bus2=p13udm28275.1.2 switch=n enabled=y phases=2 Linecode=1P_UG_AL_2/0_Converse_2

New Line.l(r:p13udt6553lv-p13ulv24422) Units=km Length=0.0283003 bus1=p13udt6553lv.1.2 bus2=p13ulv24422.1.2 switch=n enabled=y phases=2 Linecode=1P_UG_AL_1/0_Brenau_2

New Line.l(r:p13udt6553lv-p13ulv82612) Units=km Length=0.0111687 bus1=p13udt6553lv.1.2 bus2=p13ulv82612.1.2 switch=n enabled=y phases=2 Linecode=1P_UG_AL_1/0_Brenau_2

New Line.l(r:p13udt6553lv-p13ulv92938) Units=km Length=0.0138636 bus1=p13udt6553lv.1.2 bus2=p13ulv92938.1.2 switch=n enabled=y phases=2 Linecode=1P_UG_AL_1/0_Brenau_2

New Line.l(r:p13udm28280-p13ulv24420) Units=km Length=0.0106536 bus1=p13udm28280.1.2 bus2=p13ulv24420.1.2 switch=n enabled=y phases=2 Linecode=1P_UG_AL_1/0_Brenau_2

New Line.l(r:p13udm28279-p13ulv14556) Units=km Length=0.00951545 bus1=p13udm28279.1.2 bus2=p13ulv14556.1.2 switch=n enabled=y phases=2 Linecode=1P_UG_AL_1/0_Brenau_2

New Line.l(r:p13udm28279-p13udm28280) Units=km Length=0.0187214 bus1=p13udm28280.1.2 bus2=p13udm28279.1.2 switch=n enabled=y phases=2 Linecode=1P_UG_AL_1/0_Brenau_2

New Line.l(r:p13udm28280-p13udt6553lv) Units=km Length=0.0190488 bus1=p13udt6553lv.1.2 bus2=p13udm28280.1.2 switch=n enabled=y phases=2 Linecode=1P_UG_AL_1/0_Brenau_2

New Line.l(r:p13udm28282-p13ulv24423) Units=km Length=0.0305179 bus1=p13udm28282.1.2 bus2=p13ulv24423.1.2 switch=n enabled=y phases=2 Linecode=1P_UG_AL_1/0_Brenau_2

New Line.l(r:p13udm28282-p13ulv82605) Units=km Length=0.0111155 bus1=p13udm28282.1.2 bus2=p13ulv82605.1.2 switch=n enabled=y phases=2 Linecode=1P_UG_AL_1/0_Brenau_2

New Line.l(r:p13udm28282-p13ulv82618) Units=km Length=0.012593 bus1=p13udm28282.1.2 bus2=p13ulv82618.1.2 switch=n enabled=y phases=2 Linecode=1P_UG_AL_1/0_Brenau_2

New Line.l(r:p13udm28282-p13udt6553lv) Units=km Length=0.00952161 bus1=p13udt6553lv.1.2 bus2=p13udm28282.1.2 switch=n enabled=y phases=2 Linecode=1P_UG_AL_2/0_Converse_2

New Line.l(r:p13udm28288-p13ulv14574) Units=km Length=0.00396213 bus1=p13udm28288.1.2 bus2=p13ulv14574.1.2 switch=n enabled=y phases=2 Linecode=1P_UG_AL_1/0_Brenau_2

New Line.l(r:p13udm28288-p13ulv92376) Units=km Length=0.013943000000000002 bus1=p13udm28288.1.2 bus2=p13ulv92376.1.2 switch=n enabled=y phases=2 Linecode=1P_UG_AL_1/0_Brenau_2

New Line.l(r:p13udm28293-p13ulv92386) Units=km Length=0.0124121 bus1=p13udm28293.1.2 bus2=p13ulv92386.1.2 switch=n enabled=y phases=2 Linecode=1P_UG_AL_1/0_Brenau_2

New Line.l(r:p13udm28288-p13udm28293) Units=km Length=0.00914913 bus1=p13udm28288.1.2 bus2=p13udm28293.1.2 switch=n enabled=y phases=2 Linecode=1P_UG_AL_1/0_Brenau_2

New Line.l(r:p13udm28288-p13udt6554lv) Units=km Length=0.0183205 bus1=p13udt6554lv.1.2 bus2=p13udm28288.1.2 switch=n enabled=y phases=2 Linecode=1P_UG_AL_4/0_Sweetbriar_2

New Line.l(r:p13udm28290-p13ulv92370) Units=km Length=0.00822837 bus1=p13udm28290.1.2 bus2=p13ulv92370.1.2 switch=n enabled=y phases=2 Linecode=1P_UG_AL_1/0_Brenau_2

New Line.l(r:p13udm28287-p13ulv14557) Units=km Length=0.0109772 bus1=p13udm28287.1.2 bus2=p13ulv14557.1.2 switch=n enabled=y phases=2 Linecode=1P_UG_AL_1/0_Brenau_2

New Line.l(r:p13udm28287-p13ulv92367) Units=km Length=0.008176900000000003 bus1=p13udm28287.1.2 bus2=p13ulv92367.1.2 switch=n enabled=y phases=2 Linecode=1P_UG_AL_1/0_Brenau_2

New Line.l(r:p13udm28287-p13udm28290) Units=km Length=0.0199747 bus1=p13udm28290.1.2 bus2=p13udm28287.1.2 switch=n enabled=y phases=2 Linecode=1P_UG_AL_2/0_Converse_2

New Line.l(r:p13udm28290-p13udt6554lv) Units=km Length=0.0130745 bus1=p13udt6554lv.1.2 bus2=p13udm28290.1.2 switch=n enabled=y phases=2 Linecode=1P_UG_AL_4/0_Sweetbriar_2

New Line.l(r:p13udm28292-p13ulv92380) Units=km Length=0.00885249 bus1=p13udm28292.1.2 bus2=p13ulv92380.1.2 switch=n enabled=y phases=2 Linecode=1P_UG_AL_1/0_Brenau_2

New Line.l(r:p13udm28295-p13ulv92410) Units=km Length=0.00993354 bus1=p13udm28295.1.2 bus2=p13ulv92410.1.2 switch=n enabled=y phases=2 Linecode=1P_UG_AL_1/0_Brenau_2

New Line.l(r:p13udm28294-p13ulv92391) Units=km Length=0.008851580000000001 bus1=p13udm28294.1.2 bus2=p13ulv92391.1.2 switch=n enabled=y phases=2 Linecode=1P_UG_AL_1/0_Brenau_2

New Line.l(r:p13udm28294-p13udm28295) Units=km Length=0.00904005 bus1=p13udm28295.1.2 bus2=p13udm28294.1.2 switch=n enabled=y phases=2 Linecode=1P_UG_AL_1/0_Brenau_2

New Line.l(r:p13udm28292-p13udm28295) Units=km Length=0.009048070000000002 bus1=p13udm28292.1.2 bus2=p13udm28295.1.2 switch=n enabled=y phases=2 Linecode=1P_UG_AL_1/0_Brenau_2

New Line.l(r:p13udm28292-p13udt6554lv) Units=km Length=0.0181976 bus1=p13udt6554lv.1.2 bus2=p13udm28292.1.2 switch=n enabled=y phases=2 Linecode=1P_UG_AL_2/0_Converse_2

New Line.l(r:p13udt6555lv-p13ulv14558) Units=km Length=0.0204556 bus1=p13udt6555lv.1.2 bus2=p13ulv14558.1.2 switch=n enabled=y phases=2 Linecode=1P_OH_AL_2/0_Rucina_2

New Line.l(r:p13udm28297-p13ulv92358) Units=km Length=0.0150964 bus1=p13udm28297.1.2 bus2=p13ulv92358.1.2 switch=n enabled=y phases=2 Linecode=1P_OH_AL_2/0_Rucina_2

New Line.l(r:p13udm28297-p13udt6555lv) Units=km Length=0.0166815 bus1=p13udt6555lv.1.2 bus2=p13udm28297.1.2 switch=n enabled=y phases=2 Linecode=1P_OH_AL_2/0_Rucina_2

New Line.l(r:p13udm28298-p13ulv92382) Units=km Length=0.0172331 bus1=p13udm28298.1.2 bus2=p13ulv92382.1.2 switch=n enabled=y phases=2 Linecode=1P_UG_AL_1/0_Brenau_2

New Line.l(r:p13udm28298-p13udt6555lv) Units=km Length=0.040061 bus1=p13udt6555lv.1.2 bus2=p13udm28298.1.2 switch=n enabled=y phases=2 Linecode=1P_OH_AL_4/0_Zuzara_2

New Line.l(r:p13udt6556lv-p13ulv14559) Units=km Length=0.0137599 bus1=p13udt6556lv.1.2 bus2=p13ulv14559.1.2 switch=n enabled=y phases=2 Linecode=1P_UG_AL_1/0_Brenau_2

New Line.l(r:p13udm28302-p13ulv92324) Units=km Length=0.013869 bus1=p13udm28302.1.2 bus2=p13ulv92324.1.2 switch=n enabled=y phases=2 Linecode=1P_UG_AL_1/0_Brenau_2

New Line.l(r:p13udm28302-p13ulv92357) Units=km Length=0.010800200000000001 bus1=p13udm28302.1.2 bus2=p13ulv92357.1.2 switch=n enabled=y phases=2 Linecode=1P_UG_AL_1/0_Brenau_2

New Line.l(r:p13udm28300-p13ulv14565) Units=km Length=0.011165 bus1=p13udm28300.1.2 bus2=p13ulv14565.1.2 switch=n enabled=y phases=2 Linecode=1P_UG_AL_1/0_Brenau_2

New Line.l(r:p13udm28301-p13ulv14566) Units=km Length=0.00864209 bus1=p13udm28301.1.2 bus2=p13ulv14566.1.2 switch=n enabled=y phases=2 Linecode=1P_UG_AL_1/0_Brenau_2

New Line.l(r:p13udm28300-p13udm28301) Units=km Length=0.00936376 bus1=p13udm28300.1.2 bus2=p13udm28301.1.2 switch=n enabled=y phases=2 Linecode=1P_UG_AL_1/0_Brenau_2

New Line.l(r:p13udm28300-p13udm28302) Units=km Length=0.00935539 bus1=p13udm28302.1.2 bus2=p13udm28300.1.2 switch=n enabled=y phases=2 Linecode=1P_UG_AL_1/0_Brenau_2

New Line.l(r:p13udm28302-p13udt6556lv) Units=km Length=0.009369230000000001 bus1=p13udt6556lv.1.2 bus2=p13udm28302.1.2 switch=n enabled=y phases=2 Linecode=1P_UG_AL_4/0_Sweetbriar_2

New Line.l(r:p13udm28303-p13ulv92336) Units=km Length=0.0160594 bus1=p13udm28303.1.2 bus2=p13ulv92336.1.2 switch=n enabled=y phases=2 Linecode=1P_UG_AL_1/0_Brenau_2

New Line.l(r:p13udm28303-p13udt6556lv) Units=km Length=0.058135 bus1=p13udt6556lv.1.2 bus2=p13udm28303.1.2 switch=n enabled=y phases=2 Linecode=1P_UG_AL_1/0_Brenau_2

New Line.l(r:p13udm28304-p13ulv92353) Units=km Length=0.0132537 bus1=p13udm28304.1.2 bus2=p13ulv92353.1.2 switch=n enabled=y phases=2 Linecode=1P_UG_AL_1/0_Brenau_2

New Line.l(r:p13udm28304-p13udt6556lv) Units=km Length=0.0419604 bus1=p13udt6556lv.1.2 bus2=p13udm28304.1.2 switch=n enabled=y phases=2 Linecode=1P_UG_AL_1/0_Brenau_2

New Line.l(r:p13udt6557lv-p13ulv92378) Units=km Length=0.0126267 bus1=p13udt6557lv.1.2 bus2=p13ulv92378.1.2 switch=n enabled=y phases=2 Linecode=1P_UG_AL_1/0_Brenau_2

New Line.l(r:p13udm28308-p13ulv92365) Units=km Length=0.0136559 bus1=p13udm28308.1.2 bus2=p13ulv92365.1.2 switch=n enabled=y phases=2 Linecode=1P_UG_AL_1/0_Brenau_2

New Line.l(r:p13udm28306-p13ulv14560) Units=km Length=0.00731913 bus1=p13udm28306.1.2 bus2=p13ulv14560.1.2 switch=n enabled=y phases=2 Linecode=1P_UG_AL_1/0_Brenau_2

New Line.l(r:p13udm28307-p13ulv92341) Units=km Length=0.0060229 bus1=p13udm28307.1.2 bus2=p13ulv92341.1.2 switch=n enabled=y phases=2 Linecode=1P_UG_AL_1/0_Brenau_2

New Line.l(r:p13udm28306-p13udm28307) Units=km Length=0.0197027 bus1=p13udm28306.1.2 bus2=p13udm28307.1.2 switch=n enabled=y phases=2 Linecode=1P_UG_AL_1/0_Brenau_2

New Line.l(r:p13udm28306-p13udm28308) Units=km Length=0.00985643 bus1=p13udm28308.1.2 bus2=p13udm28306.1.2 switch=n enabled=y phases=2 Linecode=1P_UG_AL_1/0_Brenau_2

New Line.l(r:p13udm28308-p13udt6557lv) Units=km Length=0.007747030000000001 bus1=p13udt6557lv.1.2 bus2=p13udm28308.1.2 switch=n enabled=y phases=2 Linecode=1P_UG_AL_4/0_Sweetbriar_2

New Line.l(r:p13udm28310-p13ulv92381) Units=km Length=0.011624 bus1=p13udm28310.1.2 bus2=p13ulv92381.1.2 switch=n enabled=y phases=2 Linecode=1P_UG_AL_1/0_Brenau_2

New Line.l(r:p13udm28310-p13udt6557lv) Units=km Length=0.00773879 bus1=p13udt6557lv.1.2 bus2=p13udm28310.1.2 switch=n enabled=y phases=2 Linecode=1P_UG_AL_1/0_Brenau_2

New Line.l(r:p13udt6559lv-p13ulv14562) Units=km Length=0.008657540000000002 bus1=p13udt6559lv.1.2 bus2=p13ulv14562.1.2 switch=n enabled=y phases=2 Linecode=1P_UG_AL_1/0_Brenau_2

New Line.l(r:p13udt6559lv-p13ulv23611) Units=km Length=0.0259642 bus1=p13udt6559lv.1.2 bus2=p13ulv23611.1.2 switch=n enabled=y phases=2 Linecode=1P_UG_AL_1/0_Brenau_2

New Line.l(r:p13udm28320-p13ulv94152) Units=km Length=0.00686706 bus1=p13udm28320.1.2 bus2=p13ulv94152.1.2 switch=n enabled=y phases=2 Linecode=1P_UG_AL_1/0_Brenau_2

New Line.l(r:p13udm28320-p13ulv94184) Units=km Length=0.0089436 bus1=p13udm28320.1.2 bus2=p13ulv94184.1.2 switch=n enabled=y phases=2 Linecode=1P_UG_AL_1/0_Brenau_2

New Line.l(r:p13udm28319-p13ulv92937) Units=km Length=0.00747645 bus1=p13udm28319.1.2 bus2=p13ulv92937.1.2 switch=n enabled=y phases=2 Linecode=1P_UG_AL_1/0_Brenau_2

New Line.l(r:p13udm28318-p13ulv92910) Units=km Length=0.00954271 bus1=p13udm28318.1.2 bus2=p13ulv92910.1.2 switch=n enabled=y phases=2 Linecode=1P_UG_AL_1/0_Brenau_2

New Line.l(r:p13udm28317-p13ulv92907) Units=km Length=0.00965259 bus1=p13udm28317.1.2 bus2=p13ulv92907.1.2 switch=n enabled=y phases=2 Linecode=1P_UG_AL_1/0_Brenau_2

New Line.l(r:p13udm28317-p13udm28318) Units=km Length=0.00984838 bus1=p13udm28318.1.2 bus2=p13udm28317.1.2 switch=n enabled=y phases=2 Linecode=1P_UG_AL_1/0_Brenau_2

New Line.l(r:p13udm28318-p13udm28319) Units=km Length=0.00984838 bus1=p13udm28319.1.2 bus2=p13udm28318.1.2 switch=n enabled=y phases=2 Linecode=1P_UG_AL_1/0_Brenau_2

New Line.l(r:p13udm28319-p13udm28320) Units=km Length=0.00986236 bus1=p13udm28320.1.2 bus2=p13udm28319.1.2 switch=n enabled=y phases=2 Linecode=1P_UG_AL_2/0_Converse_2

New Line.l(r:p13udm28320-p13udt6559lv) Units=km Length=0.00984838 bus1=p13udt6559lv.1.2 bus2=p13udm28320.1.2 switch=n enabled=y phases=2 Linecode=1P_UG_AL_4/0_Sweetbriar_2

New Line.l(r:p13udm28321-p13ulv94173) Units=km Length=0.0085189 bus1=p13udm28321.1.2 bus2=p13ulv94173.1.2 switch=n enabled=y phases=2 Linecode=1P_UG_AL_1/0_Brenau_2

New Line.l(r:p13udm28316-p13ulv92271) Units=km Length=0.008764 bus1=p13udm28316.1.2 bus2=p13ulv92271.1.2 switch=n enabled=y phases=2 Linecode=1P_UG_AL_1/0_Brenau_2

New Line.l(r:p13udm28316-p13ulv94179) Units=km Length=0.00846735 bus1=p13udm28316.1.2 bus2=p13ulv94179.1.2 switch=n enabled=y phases=2 Linecode=1P_UG_AL_1/0_Brenau_2

New Line.l(r:p13udm28313-p13ulv14563) Units=km Length=0.00967019 bus1=p13udm28313.1.2 bus2=p13ulv14563.1.2 switch=n enabled=y phases=2 Linecode=1P_UG_AL_1/0_Brenau_2

New Line.l(r:p13udm28313-p13ulv92262) Units=km Length=0.00882078 bus1=p13udm28313.1.2 bus2=p13ulv92262.1.2 switch=n enabled=y phases=2 Linecode=1P_UG_AL_1/0_Brenau_2

New Line.l(r:p13udm28313-p13udm28316) Units=km Length=0.00985431 bus1=p13udm28316.1.2 bus2=p13udm28313.1.2 switch=n enabled=y phases=2 Linecode=1P_UG_AL_1/0_Brenau_2

New Line.l(r:p13udm28316-p13udm28321) Units=km Length=0.00984838 bus1=p13udm28321.1.2 bus2=p13udm28316.1.2 switch=n enabled=y phases=2 Linecode=1P_UG_AL_4/0_Sweetbriar_2

New Line.l(r:p13udm28321-p13udt6559lv) Units=km Length=0.00984838 bus1=p13udt6559lv.1.2 bus2=p13udm28321.1.2 switch=n enabled=y phases=2 Linecode=1P_UG_AL_4/0_Sweetbriar_2

New Line.l(r:p13udt6560lv-p13ulv92281) Units=km Length=0.00985174 bus1=p13udt6560lv.1.2 bus2=p13ulv92281.1.2 switch=n enabled=y phases=2 Linecode=1P_UG_AL_1/0_Brenau_2

New Line.l(r:p13udt6560lv-p13ulv92297) Units=km Length=0.008202950000000002 bus1=p13udt6560lv.1.2 bus2=p13ulv92297.1.2 switch=n enabled=y phases=2 Linecode=1P_UG_AL_1/0_Brenau_2

New Line.l(r:p13udm28324-p13ulv14564) Units=km Length=0.00793883 bus1=p13udm28324.1.2 bus2=p13ulv14564.1.2 switch=n enabled=y phases=2 Linecode=1P_UG_AL_1/0_Brenau_2

New Line.l(r:p13udm28324-p13ulv92270) Units=km Length=0.009049640000000001 bus1=p13udm28324.1.2 bus2=p13ulv92270.1.2 switch=n enabled=y phases=2 Linecode=1P_UG_AL_1/0_Brenau_2

New Line.l(r:p13udm28324-p13udt6560lv) Units=km Length=0.00984838 bus1=p13udt6560lv.1.2 bus2=p13udm28324.1.2 switch=n enabled=y phases=2 Linecode=1P_UG_AL_1/0_Brenau_2

New Line.l(r:p13udm28327-p13ulv92286) Units=km Length=0.0102166 bus1=p13udm28327.1.2 bus2=p13ulv92286.1.2 switch=n enabled=y phases=2 Linecode=1P_UG_AL_1/0_Brenau_2

New Line.l(r:p13udm28327-p13ulv92308) Units=km Length=0.008021100000000001 bus1=p13udm28327.1.2 bus2=p13ulv92308.1.2 switch=n enabled=y phases=2 Linecode=1P_UG_AL_1/0_Brenau_2

New Line.l(r:p13udm28328-p13ulv92293) Units=km Length=0.0104823 bus1=p13udm28328.1.2 bus2=p13ulv92293.1.2 switch=n enabled=y phases=2 Linecode=1P_UG_AL_1/0_Brenau_2

New Line.l(r:p13udm28330-p13ulv92302) Units=km Length=0.009734320000000001 bus1=p13udm28330.1.2 bus2=p13ulv92302.1.2 switch=n enabled=y phases=2 Linecode=1P_UG_AL_1/0_Brenau_2

New Line.l(r:p13udm28328-p13udm28330) Units=km Length=0.00984838 bus1=p13udm28328.1.2 bus2=p13udm28330.1.2 switch=n enabled=y phases=2 Linecode=1P_UG_AL_1/0_Brenau_2

New Line.l(r:p13udm28327-p13udm28328) Units=km Length=0.00984838 bus1=p13udm28327.1.2 bus2=p13udm28328.1.2 switch=n enabled=y phases=2 Linecode=1P_UG_AL_1/0_Brenau_2

New Line.l(r:p13udm28327-p13udt6560lv) Units=km Length=0.00985431 bus1=p13udt6560lv.1.2 bus2=p13udm28327.1.2 switch=n enabled=y phases=2 Linecode=1P_UG_AL_2/0_Converse_2

New Line.l(r:p13udt6561lv-p13ulv92397) Units=km Length=0.0121469 bus1=p13udt6561lv.1.2 bus2=p13ulv92397.1.2 switch=n enabled=y phases=2 Linecode=1P_UG_AL_1/0_Brenau_2

New Line.l(r:p13udt6561lv-p13ulv92437) Units=km Length=0.00943093 bus1=p13udt6561lv.1.2 bus2=p13ulv92437.1.2 switch=n enabled=y phases=2 Linecode=1P_UG_AL_1/0_Brenau_2

New Line.l(r:p13udm28337-p13ulv92409) Units=km Length=0.00913264 bus1=p13udm28337.1.2 bus2=p13ulv92409.1.2 switch=n enabled=y phases=2 Linecode=1P_UG_AL_1/0_Brenau_2

New Line.l(r:p13udm28337-p13ulv92438) Units=km Length=0.00773085 bus1=p13udm28337.1.2 bus2=p13ulv92438.1.2 switch=n enabled=y phases=2 Linecode=1P_UG_AL_1/0_Brenau_2

New Line.l(r:p13udm28336-p13ulv92406) Units=km Length=0.00995948 bus1=p13udm28336.1.2 bus2=p13ulv92406.1.2 switch=n enabled=y phases=2 Linecode=1P_UG_AL_1/0_Brenau_2

New Line.l(r:p13udm28336-p13ulv92429) Units=km Length=0.00770112 bus1=p13udm28336.1.2 bus2=p13ulv92429.1.2 switch=n enabled=y phases=2 Linecode=1P_UG_AL_1/0_Brenau_2

New Line.l(r:p13udm28336-p13udm28337) Units=km Length=0.0091545 bus1=p13udm28337.1.2 bus2=p13udm28336.1.2 switch=n enabled=y phases=2 Linecode=1P_UG_AL_1/0_Brenau_2

New Line.l(r:p13udm28337-p13udt6561lv) Units=km Length=0.00915757 bus1=p13udt6561lv.1.2 bus2=p13udm28337.1.2 switch=n enabled=y phases=2 Linecode=1P_UG_AL_4/0_Sweetbriar_2

New Line.l(r:p13udm28339-p13ulv92427) Units=km Length=0.00812416 bus1=p13udm28339.1.2 bus2=p13ulv92427.1.2 switch=n enabled=y phases=2 Linecode=1P_UG_AL_1/0_Brenau_2

New Line.l(r:p13udm28333-p13ulv14568) Units=km Length=0.00990496 bus1=p13udm28333.1.2 bus2=p13ulv14568.1.2 switch=n enabled=y phases=2 Linecode=1P_UG_AL_1/0_Brenau_2

New Line.l(r:p13udm28333-p13ulv14573) Units=km Length=0.00719336 bus1=p13udm28333.1.2 bus2=p13ulv14573.1.2 switch=n enabled=y phases=2 Linecode=1P_UG_AL_1/0_Brenau_2

New Line.l(r:p13udm28332-p13ulv14567) Units=km Length=0.012179300000000002 bus1=p13udm28332.1.2 bus2=p13ulv14567.1.2 switch=n enabled=y phases=2 Linecode=1P_UG_AL_1/0_Brenau_2

New Line.l(r:p13udm28332-p13ulv92415) Units=km Length=0.00775567 bus1=p13udm28332.1.2 bus2=p13ulv92415.1.2 switch=n enabled=y phases=2 Linecode=1P_UG_AL_1/0_Brenau_2

New Line.l(r:p13udm28332-p13udm28333) Units=km Length=0.00915757 bus1=p13udm28333.1.2 bus2=p13udm28332.1.2 switch=n enabled=y phases=2 Linecode=1P_UG_AL_1/0_Brenau_2

New Line.l(r:p13udm28333-p13udm28339) Units=km Length=0.00916293 bus1=p13udm28339.1.2 bus2=p13udm28333.1.2 switch=n enabled=y phases=2 Linecode=1P_UG_AL_4/0_Sweetbriar_2

New Line.l(r:p13udm28339-p13udt6561lv) Units=km Length=0.00915757 bus1=p13udt6561lv.1.2 bus2=p13udm28339.1.2 switch=n enabled=y phases=2 Linecode=1P_UG_AL_4/0_Sweetbriar_2

New Line.l(r:p13udt6562lv-p13ulv14570) Units=km Length=0.010975900000000002 bus1=p13udt6562lv.1.2 bus2=p13ulv14570.1.2 switch=n enabled=y phases=2 Linecode=1P_UG_AL_1/0_Brenau_2

New Line.l(r:p13udt6562lv-p13ulv90547) Units=km Length=0.00849285 bus1=p13udt6562lv.1.2 bus2=p13ulv90547.1.2 switch=n enabled=y phases=2 Linecode=1P_UG_AL_1/0_Brenau_2

New Line.l(r:p13udm28343-p13ulv14569) Units=km Length=0.00923819 bus1=p13udm28343.1.2 bus2=p13ulv14569.1.2 switch=n enabled=y phases=2 Linecode=1P_UG_AL_1/0_Brenau_2

New Line.l(r:p13udm28343-p13ulv92472) Units=km Length=0.00860703 bus1=p13udm28343.1.2 bus2=p13ulv92472.1.2 switch=n enabled=y phases=2 Linecode=1P_UG_AL_1/0_Brenau_2

New Line.l(r:p13udm28350-p13ulv92424) Units=km Length=0.00932146 bus1=p13udm28350.1.2 bus2=p13ulv92424.1.2 switch=n enabled=y phases=2 Linecode=1P_UG_AL_1/0_Brenau_2

New Line.l(r:p13udm28343-p13udm28350) Units=km Length=0.0299938 bus1=p13udm28343.1.2 bus2=p13udm28350.1.2 switch=n enabled=y phases=2 Linecode=1P_UG_AL_1/0_Brenau_2

New Line.l(r:p13udm28343-p13udt6562lv) Units=km Length=0.00999061 bus1=p13udt6562lv.1.2 bus2=p13udm28343.1.2 switch=n enabled=y phases=2 Linecode=1P_UG_AL_4/0_Sweetbriar_2

New Line.l(r:p13udm28345-p13ulv14571) Units=km Length=0.00753936 bus1=p13udm28345.1.2 bus2=p13ulv14571.1.2 switch=n enabled=y phases=2 Linecode=1P_UG_AL_1/0_Brenau_2

New Line.l(r:p13udm28345-p13ulv90551) Units=km Length=0.00816789 bus1=p13udm28345.1.2 bus2=p13ulv90551.1.2 switch=n enabled=y phases=2 Linecode=1P_UG_AL_1/0_Brenau_2

New Line.l(r:p13udm28346-p13ulv90546) Units=km Length=0.00767993 bus1=p13udm28346.1.2 bus2=p13ulv90546.1.2 switch=n enabled=y phases=2 Linecode=1P_UG_AL_1/0_Brenau_2

New Line.l(r:p13udm28345-p13udm28346) Units=km Length=0.019995800000000005 bus1=p13udm28345.1.2 bus2=p13udm28346.1.2 switch=n enabled=y phases=2 Linecode=1P_UG_AL_1/0_Brenau_2

New Line.l(r:p13udm28349-p13ulv90560) Units=km Length=0.00869327 bus1=p13udm28349.1.2 bus2=p13ulv90560.1.2 switch=n enabled=y phases=2 Linecode=1P_UG_AL_1/0_Brenau_2

New Line.l(r:p13udm28349-p13ulv92473) Units=km Length=0.00800062 bus1=p13udm28349.1.2 bus2=p13ulv92473.1.2 switch=n enabled=y phases=2 Linecode=1P_UG_AL_1/0_Brenau_2

New Line.l(r:p13udm28345-p13udm28349) Units=km Length=0.00999792 bus1=p13udm28345.1.2 bus2=p13udm28349.1.2 switch=n enabled=y phases=2 Linecode=1P_UG_AL_1/0_Brenau_2

New Line.l(r:p13udm28345-p13udt6562lv) Units=km Length=0.00999792 bus1=p13udt6562lv.1.2 bus2=p13udm28345.1.2 switch=n enabled=y phases=2 Linecode=1P_UG_AL_4/0_Sweetbriar_2

New Line.l(r:p13udt6563lv-p13ulv92453) Units=km Length=0.0312605 bus1=p13udt6563lv.1.2 bus2=p13ulv92453.1.2 switch=n enabled=y phases=2 Linecode=1P_OH_AL_4/0_Zuzara_2

New Line.l(r:p13udm28353-p13ulv14572) Units=km Length=0.017682 bus1=p13udm28353.1.2 bus2=p13ulv14572.1.2 switch=n enabled=y phases=2 Linecode=1P_OH_AL_2/0_Rucina_2

New Line.l(r:p13udm28353-p13udt6563lv) Units=km Length=0.0199571 bus1=p13udt6563lv.1.2 bus2=p13udm28353.1.2 switch=n enabled=y phases=2 Linecode=1P_OH_AL_2/0_Rucina_2

New Line.l(r:p13udm28355-p13ulv92458) Units=km Length=0.0321978 bus1=p13udm28355.1.2 bus2=p13ulv92458.1.2 switch=n enabled=y phases=2 Linecode=1P_OH_AL_4/0_Zuzara_2

New Line.l(r:p13udm28355-p13udt6563lv) Units=km Length=0.0141282 bus1=p13udt6563lv.1.2 bus2=p13udm28355.1.2 switch=n enabled=y phases=2 Linecode=1P_OH_AL_2/0_Rucina_2

New Line.l(r:p13udt6564lv-p13ulv92292) Units=km Length=0.0108592 bus1=p13udt6564lv.1.2 bus2=p13ulv92292.1.2 switch=n enabled=y phases=2 Linecode=1P_UG_AL_1/0_Brenau_2

New Line.l(r:p13udm28356-p13ulv14576) Units=km Length=0.0102111 bus1=p13udm28356.1.2 bus2=p13ulv14576.1.2 switch=n enabled=y phases=2 Linecode=1P_UG_AL_1/0_Brenau_2

New Line.l(r:p13udm28357-p13ulv14577) Units=km Length=0.0103754 bus1=p13udm28357.1.2 bus2=p13ulv14577.1.2 switch=n enabled=y phases=2 Linecode=1P_UG_AL_1/0_Brenau_2

New Line.l(r:p13udm28359-p13ulv14583) Units=km Length=0.00837048 bus1=p13udm28359.1.2 bus2=p13ulv14583.1.2 switch=n enabled=y phases=2 Linecode=1P_UG_AL_1/0_Brenau_2

New Line.l(r:p13udm28358-p13ulv14582) Units=km Length=0.00718828 bus1=p13udm28358.1.2 bus2=p13ulv14582.1.2 switch=n enabled=y phases=2 Linecode=1P_UG_AL_1/0_Brenau_2

New Line.l(r:p13udm28364-p13ulv92329) Units=km Length=0.0365683 bus1=p13udm28364.1.2 bus2=p13ulv92329.1.2 switch=n enabled=y phases=2 Linecode=1P_UG_AL_1/0_Brenau_2

New Line.l(r:p13udm28358-p13udm28364) Units=km Length=0.0271612 bus1=p13udm28358.1.2 bus2=p13udm28364.1.2 switch=n enabled=y phases=2 Linecode=1P_UG_AL_1/0_Brenau_2

New Line.l(r:p13udm28358-p13udm28359) Units=km Length=0.00791192 bus1=p13udm28359.1.2 bus2=p13udm28358.1.2 switch=n enabled=y phases=2 Linecode=1P_UG_AL_1/0_Brenau_2

New Line.l(r:p13udm28357-p13udm28359) Units=km Length=0.0158148 bus1=p13udm28357.1.2 bus2=p13udm28359.1.2 switch=n enabled=y phases=2 Linecode=1P_UG_AL_2/0_Converse_2

New Line.l(r:p13udm28356-p13udm28357) Units=km Length=0.0179719 bus1=p13udm28356.1.2 bus2=p13udm28357.1.2 switch=n enabled=y phases=2 Linecode=1P_UG_AL_4/0_Sweetbriar_2

New Line.l(r:p13udm28356-p13udt6564lv) Units=km Length=0.0089833 bus1=p13udt6564lv.1.2 bus2=p13udm28356.1.2 switch=n enabled=y phases=2 Linecode=1P_UG_AL_4/0_Sweetbriar_2

New Line.l(r:p13udm28361-p13ulv92304) Units=km Length=0.011566900000000001 bus1=p13udm28361.1.2 bus2=p13ulv92304.1.2 switch=n enabled=y phases=2 Linecode=1P_UG_AL_1/0_Brenau_2

New Line.l(r:p13udm28365-p13ulv92330) Units=km Length=0.00952589 bus1=p13udm28365.1.2 bus2=p13ulv92330.1.2 switch=n enabled=y phases=2 Linecode=1P_UG_AL_1/0_Brenau_2

New Line.l(r:p13udm28362-p13ulv92314) Units=km Length=0.011004 bus1=p13udm28362.1.2 bus2=p13ulv92314.1.2 switch=n enabled=y phases=2 Linecode=1P_UG_AL_1/0_Brenau_2

New Line.l(r:p13udm28363-p13ulv92323) Units=km Length=0.0106746 bus1=p13udm28363.1.2 bus2=p13ulv92323.1.2 switch=n enabled=y phases=2 Linecode=1P_UG_AL_1/0_Brenau_2

New Line.l(r:p13udm28363-p13ulv92335) Units=km Length=0.0228037 bus1=p13udm28363.1.2 bus2=p13ulv92335.1.2 switch=n enabled=y phases=2 Linecode=1P_UG_AL_1/0_Brenau_2

New Line.l(r:p13udm28362-p13udm28363) Units=km Length=0.00898976 bus1=p13udm28362.1.2 bus2=p13udm28363.1.2 switch=n enabled=y phases=2 Linecode=1P_UG_AL_1/0_Brenau_2

New Line.l(r:p13udm28362-p13udm28365) Units=km Length=0.00898213 bus1=p13udm28365.1.2 bus2=p13udm28362.1.2 switch=n enabled=y phases=2 Linecode=1P_UG_AL_2/0_Converse_2

New Line.l(r:p13udm28361-p13udm28365) Units=km Length=0.0089833 bus1=p13udm28361.1.2 bus2=p13udm28365.1.2 switch=n enabled=y phases=2 Linecode=1P_UG_AL_4/0_Sweetbriar_2

New Line.l(r:p13udm28361-p13udt6564lv) Units=km Length=0.00898213 bus1=p13udt6564lv.1.2 bus2=p13udm28361.1.2 switch=n enabled=y phases=2 Linecode=1P_UG_AL_4/0_Sweetbriar_2

New Line.l(r:p13udt6565lv-p13ulv16773) Units=km Length=0.0104906 bus1=p13udt6565lv.1.2 bus2=p13ulv16773.1.2 switch=n enabled=y phases=2 Linecode=1P_UG_AL_1/0_Brenau_2

New Line.l(r:p13udm28371-p13ulv94150) Units=km Length=0.0110586 bus1=p13udm28371.1.2 bus2=p13ulv94150.1.2 switch=n enabled=y phases=2 Linecode=1P_UG_AL_1/0_Brenau_2

New Line.l(r:p13udm28372-p13ulv94171) Units=km Length=0.0112159 bus1=p13udm28372.1.2 bus2=p13ulv94171.1.2 switch=n enabled=y phases=2 Linecode=1P_UG_AL_1/0_Brenau_2

New Line.l(r:p13udm28367-p13ulv14578) Units=km Length=0.0112441 bus1=p13udm28367.1.2 bus2=p13ulv14578.1.2 switch=n enabled=y phases=2 Linecode=1P_UG_AL_1/0_Brenau_2

New Line.l(r:p13udm28367-p13udm28372) Units=km Length=0.00933266 bus1=p13udm28372.1.2 bus2=p13udm28367.1.2 switch=n enabled=y phases=2 Linecode=1P_UG_AL_1/0_Brenau_2

New Line.l(r:p13udm28371-p13udm28372) Units=km Length=0.00933266 bus1=p13udm28371.1.2 bus2=p13udm28372.1.2 switch=n enabled=y phases=2 Linecode=1P_UG_AL_2/0_Converse_2

New Line.l(r:p13udm28371-p13udt6565lv) Units=km Length=0.009339040000000002 bus1=p13udt6565lv.1.2 bus2=p13udm28371.1.2 switch=n enabled=y phases=2 Linecode=1P_UG_AL_4/0_Sweetbriar_2

New Line.l(r:p13udm28373-p13ulv100015) Units=km Length=0.0132347 bus1=p13udm28373.1.2 bus2=p13ulv100015.1.2 switch=n enabled=y phases=2 Linecode=1P_UG_AL_1/0_Brenau_2

New Line.l(r:p13udm28369-p13ulv75633) Units=km Length=0.007277370000000001 bus1=p13udm28369.1.2 bus2=p13ulv75633.1.2 switch=n enabled=y phases=2 Linecode=1P_UG_AL_1/0_Brenau_2

New Line.l(r:p13udm28369-p13ulv92919) Units=km Length=0.00733027 bus1=p13udm28369.1.2 bus2=p13ulv92919.1.2 switch=n enabled=y phases=2 Linecode=1P_UG_AL_1/0_Brenau_2

New Line.l(r:p13udm28369-p13udm28373) Units=km Length=0.0132159 bus1=p13udm28373.1.2 bus2=p13udm28369.1.2 switch=n enabled=y phases=2 Linecode=1P_UG_AL_1/0_Brenau_2

New Line.l(r:p13udm28373-p13udt6565lv) Units=km Length=0.00934037 bus1=p13udt6565lv.1.2 bus2=p13udm28373.1.2 switch=n enabled=y phases=2 Linecode=1P_UG_AL_2/0_Converse_2

New Line.l(r:p13udt6566lv-p13ulv14581) Units=km Length=0.008454900000000001 bus1=p13udt6566lv.1.2 bus2=p13ulv14581.1.2 switch=n enabled=y phases=2 Linecode=1P_UG_AL_1/0_Brenau_2

New Line.l(r:p13udm28374-p13ulv14579) Units=km Length=0.0117615 bus1=p13udm28374.1.2 bus2=p13ulv14579.1.2 switch=n enabled=y phases=2 Linecode=1P_UG_AL_1/0_Brenau_2

New Line.l(r:p13udm28377-p13ulv92277) Units=km Length=0.00762109 bus1=p13udm28377.1.2 bus2=p13ulv92277.1.2 switch=n enabled=y phases=2 Linecode=1P_UG_AL_1/0_Brenau_2

New Line.l(r:p13udm28374-p13udm28377) Units=km Length=0.0186717 bus1=p13udm28374.1.2 bus2=p13udm28377.1.2 switch=n enabled=y phases=2 Linecode=1P_UG_AL_1/0_Brenau_2

New Line.l(r:p13udm28374-p13udt6566lv) Units=km Length=0.0401164 bus1=p13udt6566lv.1.2 bus2=p13udm28374.1.2 switch=n enabled=y phases=2 Linecode=1P_UG_AL_1/0_Brenau_2

New Line.l(r:p13udm28378-p13ulv94156) Units=km Length=0.00817529 bus1=p13udm28378.1.2 bus2=p13ulv94156.1.2 switch=n enabled=y phases=2 Linecode=1P_UG_AL_1/0_Brenau_2

New Line.l(r:p13udm28376-p13ulv16813) Units=km Length=0.00898137 bus1=p13udm28376.1.2 bus2=p13ulv16813.1.2 switch=n enabled=y phases=2 Linecode=1P_UG_AL_1/0_Brenau_2

New Line.l(r:p13udm28376-p13ulv100111) Units=km Length=0.00793666 bus1=p13udm28376.1.2 bus2=p13ulv100111.1.2 switch=n enabled=y phases=2 Linecode=1P_UG_AL_1/0_Brenau_2

New Line.l(r:p13udm28380-p13ulv100149) Units=km Length=0.00719725 bus1=p13udm28380.1.2 bus2=p13ulv100149.1.2 switch=n enabled=y phases=2 Linecode=1P_UG_AL_1/0_Brenau_2

New Line.l(r:p13udm28376-p13udm28380) Units=km Length=0.0192484 bus1=p13udm28376.1.2 bus2=p13udm28380.1.2 switch=n enabled=y phases=2 Linecode=1P_UG_AL_1/0_Brenau_2

New Line.l(r:p13udm28376-p13udm28378) Units=km Length=0.00961992 bus1=p13udm28378.1.2 bus2=p13udm28376.1.2 switch=n enabled=y phases=2 Linecode=1P_UG_AL_2/0_Converse_2

New Line.l(r:p13udm28378-p13udt6566lv) Units=km Length=0.00962094 bus1=p13udt6566lv.1.2 bus2=p13udm28378.1.2 switch=n enabled=y phases=2 Linecode=1P_UG_AL_4/0_Sweetbriar_2

New Line.l(r:p13udt6567lv-p13ulv14580) Units=km Length=0.008799420000000002 bus1=p13udt6567lv.1.2 bus2=p13ulv14580.1.2 switch=n enabled=y phases=2 Linecode=1P_UG_AL_2/0_Converse_2

New Line.l(r:p13udm28385-p13ulv92414) Units=km Length=0.011373700000000002 bus1=p13udm28385.1.2 bus2=p13ulv92414.1.2 switch=n enabled=y phases=2 Linecode=1P_UG_AL_1/0_Brenau_2

New Line.l(r:p13udm28385-p13ulv92440) Units=km Length=0.0091254 bus1=p13udm28385.1.2 bus2=p13ulv92440.1.2 switch=n enabled=y phases=2 Linecode=1P_UG_AL_1/0_Brenau_2

New Line.l(r:p13udm28387-p13ulv92447) Units=km Length=0.00933515 bus1=p13udm28387.1.2 bus2=p13ulv92447.1.2 switch=n enabled=y phases=2 Linecode=1P_UG_AL_1/0_Brenau_2

New Line.l(r:p13udm28382-p13ulv14584) Units=km Length=0.0122005 bus1=p13udm28382.1.2 bus2=p13ulv14584.1.2 switch=n enabled=y phases=2 Linecode=1P_UG_AL_1/0_Brenau_2

New Line.l(r:p13udm28382-p13udm28387) Units=km Length=0.00976303 bus1=p13udm28387.1.2 bus2=p13udm28382.1.2 switch=n enabled=y phases=2 Linecode=1P_UG_AL_1/0_Brenau_2

New Line.l(r:p13udm28385-p13udm28387) Units=km Length=0.00976303 bus1=p13udm28385.1.2 bus2=p13udm28387.1.2 switch=n enabled=y phases=2 Linecode=1P_UG_AL_1/0_Brenau_2

New Line.l(r:p13udm28385-p13udt6568lv) Units=km Length=0.00976303 bus1=p13udt6568lv.1.2 bus2=p13udm28385.1.2 switch=n enabled=y phases=2 Linecode=1P_UG_AL_4/0_Sweetbriar_2

New Line.l(r:p13udm28389-p13ulv94158) Units=km Length=0.00824394 bus1=p13udm28389.1.2 bus2=p13ulv94158.1.2 switch=n enabled=y phases=2 Linecode=1P_UG_AL_1/0_Brenau_2

New Line.l(r:p13udm28383-p13ulv89904) Units=km Length=0.0137061 bus1=p13udm28383.1.2 bus2=p13ulv89904.1.2 switch=n enabled=y phases=2 Linecode=1P_UG_AL_1/0_Brenau_2

New Line.l(r:p13udm28384-p13ulv92402) Units=km Length=0.00899903 bus1=p13udm28384.1.2 bus2=p13ulv92402.1.2 switch=n enabled=y phases=2 Linecode=1P_UG_AL_1/0_Brenau_2

New Line.l(r:p13udm28384-p13ulv94148) Units=km Length=0.014878 bus1=p13udm28384.1.2 bus2=p13ulv94148.1.2 switch=n enabled=y phases=2 Linecode=1P_UG_AL_1/0_Brenau_2

New Line.l(r:p13udm28383-p13udm28384) Units=km Length=0.00976621 bus1=p13udm28383.1.2 bus2=p13udm28384.1.2 switch=n enabled=y phases=2 Linecode=1P_UG_AL_1/0_Brenau_2

New Line.l(r:p13udm28383-p13udm28389) Units=km Length=0.00976303 bus1=p13udm28389.1.2 bus2=p13udm28383.1.2 switch=n enabled=y phases=2 Linecode=1P_UG_AL_2/0_Converse_2

New Line.l(r:p13udm28389-p13udt6568lv) Units=km Length=0.00976259 bus1=p13udt6568lv.1.2 bus2=p13udm28389.1.2 switch=n enabled=y phases=2 Linecode=1P_UG_AL_4/0_Sweetbriar_2

New Line.l(r:p13udm28390-p13ulv14585) Units=km Length=0.0123158 bus1=p13udm28390.1.2 bus2=p13ulv14585.1.2 switch=n enabled=y phases=2 Linecode=1P_UG_AL_1/0_Brenau_2

New Line.l(r:p13udm28390-p13ulv14589) Units=km Length=0.010033900000000002 bus1=p13udm28390.1.2 bus2=p13ulv14589.1.2 switch=n enabled=y phases=2 Linecode=1P_UG_AL_1/0_Brenau_2

New Line.l(r:p13udm28392-p13ulv14590) Units=km Length=0.00828077 bus1=p13udm28392.1.2 bus2=p13ulv14590.1.2 switch=n enabled=y phases=2 Linecode=1P_UG_AL_1/0_Brenau_2

New Line.l(r:p13udm28392-p13ulv90554) Units=km Length=0.0114681 bus1=p13udm28392.1.2 bus2=p13ulv90554.1.2 switch=n enabled=y phases=2 Linecode=1P_UG_AL_1/0_Brenau_2

New Line.l(r:p13udm28390-p13udm28392) Units=km Length=0.00998433 bus1=p13udm28390.1.2 bus2=p13udm28392.1.2 switch=n enabled=y phases=2 Linecode=1P_UG_AL_1/0_Brenau_2

New Line.l(r:p13udm28390-p13udt6569lv) Units=km Length=0.00999841 bus1=p13udt6569lv.1.2 bus2=p13udm28390.1.2 switch=n enabled=y phases=2 Linecode=1P_UG_AL_4/0_Sweetbriar_2

New Line.l(r:p13udm28395-p13ulv90556) Units=km Length=0.00869876 bus1=p13udm28395.1.2 bus2=p13ulv90556.1.2 switch=n enabled=y phases=2 Linecode=1P_UG_AL_1/0_Brenau_2

New Line.l(r:p13udm28395-p13ulv92468) Units=km Length=0.012099 bus1=p13udm28395.1.2 bus2=p13ulv92468.1.2 switch=n enabled=y phases=2 Linecode=1P_UG_AL_1/0_Brenau_2

New Line.l(r:p13udm28393-p13ulv90548) Units=km Length=0.00736416 bus1=p13udm28393.1.2 bus2=p13ulv90548.1.2 switch=n enabled=y phases=2 Linecode=1P_UG_AL_1/0_Brenau_2

New Line.l(r:p13udm28393-p13udm28395) Units=km Length=0.00998433 bus1=p13udm28395.1.2 bus2=p13udm28393.1.2 switch=n enabled=y phases=2 Linecode=1P_UG_AL_1/0_Brenau_2

New Line.l(r:p13udm28395-p13udt6569lv) Units=km Length=0.00999202 bus1=p13udt6569lv.1.2 bus2=p13udm28395.1.2 switch=n enabled=y phases=2 Linecode=1P_UG_AL_4/0_Sweetbriar_2

New Line.l(r:p13udt6571lv-p13ulv92435) Units=km Length=0.010583 bus1=p13udt6571lv.1.2 bus2=p13ulv92435.1.2 switch=n enabled=y phases=2 Linecode=1P_UG_AL_1/0_Brenau_2

New Line.l(r:p13udm28400-p13ulv92351) Units=km Length=0.014111100000000001 bus1=p13udm28400.1.2 bus2=p13ulv92351.1.2 switch=n enabled=y phases=2 Linecode=1P_UG_AL_1/0_Brenau_2

New Line.l(r:p13udm28400-p13ulv92393) Units=km Length=0.0133669 bus1=p13udm28400.1.2 bus2=p13ulv92393.1.2 switch=n enabled=y phases=2 Linecode=1P_UG_AL_1/0_Brenau_2

New Line.l(r:p13udm28400-p13udt6571lv) Units=km Length=0.101379 bus1=p13udt6571lv.1.2 bus2=p13udm28400.1.2 switch=n enabled=y phases=2 Linecode=1P_UG_AL_4/0_Sweetbriar_2

New Line.l(r:p13udm28403-p13ulv92441) Units=km Length=0.0117008 bus1=p13udm28403.1.2 bus2=p13ulv92441.1.2 switch=n enabled=y phases=2 Linecode=1P_UG_AL_1/0_Brenau_2

New Line.l(r:p13udm28399-p13ulv14587) Units=km Length=0.00512455 bus1=p13udm28399.1.2 bus2=p13ulv14587.1.2 switch=n enabled=y phases=2 Linecode=1P_UG_AL_1/0_Brenau_2

New Line.l(r:p13udm28405-p13ulv92466) Units=km Length=0.00905166 bus1=p13udm28405.1.2 bus2=p13ulv92466.1.2 switch=n enabled=y phases=2 Linecode=1P_UG_AL_1/0_Brenau_2

New Line.l(r:p13udm28405-p13ulv92470) Units=km Length=0.00401995 bus1=p13udm28405.1.2 bus2=p13ulv92470.1.2 switch=n enabled=y phases=2 Linecode=1P_UG_AL_1/0_Brenau_2

New Line.l(r:p13udm28399-p13udm28405) Units=km Length=0.0196024 bus1=p13udm28399.1.2 bus2=p13udm28405.1.2 switch=n enabled=y phases=2 Linecode=1P_UG_AL_1/0_Brenau_2

New Line.l(r:p13udm28399-p13udm28403) Units=km Length=0.00979076 bus1=p13udm28403.1.2 bus2=p13udm28399.1.2 switch=n enabled=y phases=2 Linecode=1P_UG_AL_2/0_Converse_2

New Line.l(r:p13udm28404-p13ulv92457) Units=km Length=0.0113385 bus1=p13udm28404.1.2 bus2=p13ulv92457.1.2 switch=n enabled=y phases=2 Linecode=1P_UG_AL_1/0_Brenau_2

New Line.l(r:p13udm28404-p13ulv92475) Units=km Length=0.00960865 bus1=p13udm28404.1.2 bus2=p13ulv92475.1.2 switch=n enabled=y phases=2 Linecode=1P_UG_AL_1/0_Brenau_2

New Line.l(r:p13udm28403-p13udm28404) Units=km Length=0.0199827 bus1=p13udm28403.1.2 bus2=p13udm28404.1.2 switch=n enabled=y phases=2 Linecode=1P_UG_AL_1/0_Brenau_2

New Line.l(r:p13udm28403-p13udt6571lv) Units=km Length=0.00976303 bus1=p13udt6571lv.1.2 bus2=p13udm28403.1.2 switch=n enabled=y phases=2 Linecode=1P_UG_AL_4/0_Sweetbriar_2

New Line.l(r:p13udt6572lv-p13ulv94159) Units=km Length=0.00381886 bus1=p13udt6572lv.1.2 bus2=p13ulv94159.1.2 switch=n enabled=y phases=2 Linecode=1P_UG_AL_1/0_Brenau_2

New Line.l(r:p13udm28410-p13ulv89905) Units=km Length=0.0090277 bus1=p13udm28410.1.2 bus2=p13ulv89905.1.2 switch=n enabled=y phases=2 Linecode=1P_UG_AL_1/0_Brenau_2

New Line.l(r:p13udm28411-p13ulv90559) Units=km Length=0.004998420000000001 bus1=p13udm28411.1.2 bus2=p13ulv90559.1.2 switch=n enabled=y phases=2 Linecode=1P_UG_AL_1/0_Brenau_2

New Line.l(r:p13udm28408-p13ulv14588) Units=km Length=0.0022002 bus1=p13udm28408.1.2 bus2=p13ulv14588.1.2 switch=n enabled=y phases=2 Linecode=1P_UG_AL_1/0_Brenau_2

New Line.l(r:p13udm28408-p13udm28411) Units=km Length=0.00950297 bus1=p13udm28411.1.2 bus2=p13udm28408.1.2 switch=n enabled=y phases=2 Linecode=1P_UG_AL_1/0_Brenau_2

New Line.l(r:p13udm28410-p13udm28411) Units=km Length=0.009517 bus1=p13udm28410.1.2 bus2=p13udm28411.1.2 switch=n enabled=y phases=2 Linecode=1P_UG_AL_1/0_Brenau_2

New Line.l(r:p13udm28410-p13udt6572lv) Units=km Length=0.00950297 bus1=p13udt6572lv.1.2 bus2=p13udm28410.1.2 switch=n enabled=y phases=2 Linecode=1P_UG_AL_2/0_Converse_2

New Line.l(r:p13udm28413-p13ulv96549) Units=km Length=0.0138842 bus1=p13udm28413.1.2 bus2=p13ulv96549.1.2 switch=n enabled=y phases=2 Linecode=1P_UG_AL_1/0_Brenau_2

New Line.l(r:p13udm28409-p13ulv16823) Units=km Length=0.0076500100000000005 bus1=p13udm28409.1.2 bus2=p13ulv16823.1.2 switch=n enabled=y phases=2 Linecode=1P_UG_AL_1/0_Brenau_2

New Line.l(r:p13udm28409-p13ulv96596) Units=km Length=0.00522061 bus1=p13udm28409.1.2 bus2=p13ulv96596.1.2 switch=n enabled=y phases=2 Linecode=1P_UG_AL_1/0_Brenau_2

New Line.l(r:p13udm28415-p13ulv96610) Units=km Length=0.00329401 bus1=p13udm28415.1.2 bus2=p13ulv96610.1.2 switch=n enabled=y phases=2 Linecode=1P_UG_AL_1/0_Brenau_2

New Line.l(r:p13udm28409-p13udm28415) Units=km Length=0.01902 bus1=p13udm28409.1.2 bus2=p13udm28415.1.2 switch=n enabled=y phases=2 Linecode=1P_UG_AL_1/0_Brenau_2

New Line.l(r:p13udm28409-p13udm28413) Units=km Length=0.00951089 bus1=p13udm28413.1.2 bus2=p13udm28409.1.2 switch=n enabled=y phases=2 Linecode=1P_UG_AL_2/0_Converse_2

New Line.l(r:p13udm28413-p13udt6572lv) Units=km Length=0.00950297 bus1=p13udt6572lv.1.2 bus2=p13udm28413.1.2 switch=n enabled=y phases=2 Linecode=1P_UG_AL_4/0_Sweetbriar_2

New Line.l(r:p13udt6573lv-p13ulv90568) Units=km Length=0.010918600000000002 bus1=p13udt6573lv.1.2 bus2=p13ulv90568.1.2 switch=n enabled=y phases=2 Linecode=1P_UG_AL_1/0_Brenau_2

New Line.l(r:p13udm28418-p13ulv90562) Units=km Length=0.0111417 bus1=p13udm28418.1.2 bus2=p13ulv90562.1.2 switch=n enabled=y phases=2 Linecode=1P_UG_AL_1/0_Brenau_2

New Line.l(r:p13udm28418-p13ulv90580) Units=km Length=0.009049250000000002 bus1=p13udm28418.1.2 bus2=p13ulv90580.1.2 switch=n enabled=y phases=2 Linecode=1P_UG_AL_1/0_Brenau_2

New Line.l(r:p13udm28416-p13ulv14591) Units=km Length=0.0080214 bus1=p13udm28416.1.2 bus2=p13ulv14591.1.2 switch=n enabled=y phases=2 Linecode=1P_UG_AL_1/0_Brenau_2

New Line.l(r:p13udm28416-p13udm28418) Units=km Length=0.00999841 bus1=p13udm28418.1.2 bus2=p13udm28416.1.2 switch=n enabled=y phases=2 Linecode=1P_UG_AL_1/0_Brenau_2

New Line.l(r:p13udm28418-p13udt6573lv) Units=km Length=0.00998433 bus1=p13udt6573lv.1.2 bus2=p13udm28418.1.2 switch=n enabled=y phases=2 Linecode=1P_UG_AL_2/0_Converse_2

New Line.l(r:p13udm28420-p13ulv90577) Units=km Length=0.0107591 bus1=p13udm28420.1.2 bus2=p13ulv90577.1.2 switch=n enabled=y phases=2 Linecode=1P_UG_AL_1/0_Brenau_2

New Line.l(r:p13udm28420-p13ulv90586) Units=km Length=0.0066851 bus1=p13udm28420.1.2 bus2=p13ulv90586.1.2 switch=n enabled=y phases=2 Linecode=1P_UG_AL_4/0_Sweetbriar_2

New Line.l(r:p13udm28417-p13ulv14592) Units=km Length=0.0169654 bus1=p13udm28417.1.2 bus2=p13ulv14592.1.2 switch=n enabled=y phases=2 Linecode=1P_OH_AL_2/0_Rucina_2

New Line.l(r:p13udm28417-p13udm28420) Units=km Length=0.0495002 bus1=p13udm28420.1.2 bus2=p13udm28417.1.2 switch=n enabled=y phases=2 Linecode=1P_OH_AL_4/0_Zuzara_2

New Line.l(r:p13udm28420-p13udt6573lv) Units=km Length=0.00999202 bus1=p13udt6573lv.1.2 bus2=p13udm28420.1.2 switch=n enabled=y phases=2 Linecode=1P_UG_AL_4/0_Sweetbriar_2

New Line.l(r:p13udt6575lv-p13ulv90650) Units=km Length=0.0209466 bus1=p13udt6575lv.1.2 bus2=p13ulv90650.1.2 switch=n enabled=y phases=2 Linecode=1P_OH_AL_2/0_Rucina_2

New Line.l(r:p13udm28424-p13ulv14594) Units=km Length=0.0204094 bus1=p13udm28424.1.2 bus2=p13ulv14594.1.2 switch=n enabled=y phases=2 Linecode=1P_OH_AL_2/0_Rucina_2

New Line.l(r:p13udm28424-p13udt6575lv) Units=km Length=0.0151965 bus1=p13udt6575lv.1.2 bus2=p13udm28424.1.2 switch=n enabled=y phases=2 Linecode=1P_OH_AL_2/0_Rucina_2

New Line.l(r:p13udm28426-p13ulv90659) Units=km Length=0.0199336 bus1=p13udm28426.1.2 bus2=p13ulv90659.1.2 switch=n enabled=y phases=2 Linecode=1P_UG_AL_1/0_Brenau_2

New Line.l(r:p13udm28426-p13ulv90690) Units=km Length=0.051941400000000006 bus1=p13udm28426.1.2 bus2=p13ulv90690.1.2 switch=n enabled=y phases=2 Linecode=1P_UG_AL_1/0_Brenau_2

New Line.l(r:p13udm28427-p13ulv90670) Units=km Length=0.0211597 bus1=p13udm28427.1.2 bus2=p13ulv90670.1.2 switch=n enabled=y phases=2 Linecode=1P_OH_AL_2/0_Rucina_2

New Line.l(r:p13udm28426-p13udm28427) Units=km Length=0.019057 bus1=p13udm28426.1.2 bus2=p13udm28427.1.2 switch=n enabled=y phases=2 Linecode=1P_OH_AL_2/0_Rucina_2

New Line.l(r:p13udm28426-p13udt6575lv) Units=km Length=0.015199400000000002 bus1=p13udt6575lv.1.2 bus2=p13udm28426.1.2 switch=n enabled=y phases=2 Linecode=1P_OH_AL_2/0_Rucina_2

New Line.l(r:p13udt6576lv-p13ulv90553) Units=km Length=0.00402573 bus1=p13udt6576lv.1.2 bus2=p13ulv90553.1.2 switch=n enabled=y phases=2 Linecode=1P_OH_AL_2/0_Rucina_2

New Line.l(r:p13udm28429-p13ulv14595) Units=km Length=0.00640532 bus1=p13udm28429.1.2 bus2=p13ulv14595.1.2 switch=n enabled=y phases=2 Linecode=1P_OH_AL_2/0_Rucina_2

New Line.l(r:p13udm28429-p13udt6576lv) Units=km Length=0.009254800000000002 bus1=p13udt6576lv.1.2 bus2=p13udm28429.1.2 switch=n enabled=y phases=2 Linecode=1P_OH_AL_2/0_Rucina_2

New Line.l(r:p13udt6577lv-p13ulv90594) Units=km Length=0.0490755 bus1=p13udt6577lv.1.2 bus2=p13ulv90594.1.2 switch=n enabled=y phases=2 Linecode=1P_UG_AL_1/0_Brenau_2

New Line.l(r:p13udm28433-p13ulv90572) Units=km Length=0.017525500000000003 bus1=p13udm28433.1.2 bus2=p13ulv90572.1.2 switch=n enabled=y phases=2 Linecode=1P_OH_AL_2/0_Rucina_2

New Line.l(r:p13udm28432-p13ulv90569) Units=km Length=0.0170464 bus1=p13udm28432.1.2 bus2=p13ulv90569.1.2 switch=n enabled=y phases=2 Linecode=1P_OH_AL_2/0_Rucina_2

New Line.l(r:p13udm28432-p13udm28433) Units=km Length=0.0141282 bus1=p13udm28433.1.2 bus2=p13udm28432.1.2 switch=n enabled=y phases=2 Linecode=1P_OH_AL_2/0_Rucina_2

New Line.l(r:p13udm28433-p13udt6577lv) Units=km Length=0.0141333 bus1=p13udt6577lv.1.2 bus2=p13udm28433.1.2 switch=n enabled=y phases=2 Linecode=1P_OH_AL_2/0_Rucina_2

New Line.l(r:p13udm28434-p13ulv90581) Units=km Length=0.0220918 bus1=p13udm28434.1.2 bus2=p13ulv90581.1.2 switch=n enabled=y phases=2 Linecode=1P_OH_AL_2/0_Rucina_2

New Line.l(r:p13udm28431-p13ulv14596) Units=km Length=0.0222334 bus1=p13udm28431.1.2 bus2=p13ulv14596.1.2 switch=n enabled=y phases=2 Linecode=1P_OH_AL_2/0_Rucina_2

New Line.l(r:p13udm28431-p13udm28434) Units=km Length=0.0193369 bus1=p13udm28434.1.2 bus2=p13udm28431.1.2 switch=n enabled=y phases=2 Linecode=1P_OH_AL_2/0_Rucina_2

New Line.l(r:p13udm28434-p13udt6577lv) Units=km Length=0.0193369 bus1=p13udt6577lv.1.2 bus2=p13udm28434.1.2 switch=n enabled=y phases=2 Linecode=1P_OH_AL_2/0_Rucina_2_7

New Line.l(r:p13udt6578lv-p13ulv90620) Units=km Length=0.0184323 bus1=p13udt6578lv.1.2 bus2=p13ulv90620.1.2 switch=n enabled=y phases=2 Linecode=1P_OH_AL_2/0_Rucina_2

New Line.l(r:p13udm28436-p13ulv14597) Units=km Length=0.0178989 bus1=p13udm28436.1.2 bus2=p13ulv14597.1.2 switch=n enabled=y phases=2 Linecode=1P_OH_AL_2/0_Rucina_2

New Line.l(r:p13udm28436-p13udt6578lv) Units=km Length=0.0122506 bus1=p13udt6578lv.1.2 bus2=p13udm28436.1.2 switch=n enabled=y phases=2 Linecode=1P_OH_AL_2/0_Rucina_2

New Line.l(r:p13udt6579lv-p13ulv14598) Units=km Length=0.0118281 bus1=p13udt6579lv.1.2 bus2=p13ulv14598.1.2 switch=n enabled=y phases=2 Linecode=1P_UG_AL_1/0_Brenau_2

New Line.l(r:p13udt6579lv-p13ulv90716) Units=km Length=0.0144339 bus1=p13udt6579lv.1.2 bus2=p13ulv90716.1.2 switch=n enabled=y phases=2 Linecode=1P_UG_AL_1/0_Brenau_2

New Line.l(r:p13udm28439-p13ulv90693) Units=km Length=0.013053 bus1=p13udm28439.1.2 bus2=p13ulv90693.1.2 switch=n enabled=y phases=2 Linecode=1P_UG_AL_1/0_Brenau_2

New Line.l(r:p13udm28439-p13udt6579lv) Units=km Length=0.009483 bus1=p13udt6579lv.1.2 bus2=p13udm28439.1.2 switch=n enabled=y phases=2 Linecode=1P_UG_AL_1/0_Brenau_2

New Line.l(r:p13udm28440-p13ulv90699) Units=km Length=0.0171307 bus1=p13udm28440.1.2 bus2=p13ulv90699.1.2 switch=n enabled=y phases=2 Linecode=1P_UG_AL_4/0_Sweetbriar_2

New Line.l(r:p13udm28440-p13udt6579lv) Units=km Length=0.0284498 bus1=p13udt6579lv.1.2 bus2=p13udm28440.1.2 switch=n enabled=y phases=2 Linecode=1P_UG_AL_4/0_Sweetbriar_2

New Line.l(r:p13udt6580lv-p13ulv14599) Units=km Length=0.010958 bus1=p13udt6580lv.1.2 bus2=p13ulv14599.1.2 switch=n enabled=y phases=2 Linecode=1P_OH_AL_2/0_Rucina_2

New Line.l(r:p13udt6580lv-p13ulv90567) Units=km Length=0.004060050000000001 bus1=p13udt6580lv.1.2 bus2=p13ulv90567.1.2 switch=n enabled=y phases=2 Linecode=1P_OH_AL_2/0_Rucina_2

New Line.l(r:p13udm28443-p13ulv90557) Units=km Length=0.00276812 bus1=p13udm28443.1.2 bus2=p13ulv90557.1.2 switch=n enabled=y phases=2 Linecode=1P_OH_AL_4_Periwinkle_2

New Line.l(r:p13udm28443-p13udt6580lv) Units=km Length=0.0184722 bus1=p13udt6580lv.1.2 bus2=p13udm28443.1.2 switch=n enabled=y phases=2 Linecode=1P_OH_AL_2/0_Rucina_2

New Line.l(r:p13udt6581lv-p13ulv89908) Units=km Length=0.0122308 bus1=p13udt6581lv.1.2 bus2=p13ulv89908.1.2 switch=n enabled=y phases=2 Linecode=1P_UG_AL_1/0_Brenau_2

...