voltage-tiling/data/p13u_violations/p13uhs23_1247--p13udt28279/Loads.dss
New Load.load_p13ulv3487_1 conn=wye bus1=p13ulv3487.1 kV=0.12 Vminpu=0.8 Vmaxpu=1.2 model=1 kW=3.44520373572286 kvar=1.4184167138400507 Phases=1 yearly=res_kw_2053_pu

New Load.load_p13ulv3487_2 conn=wye bus1=p13ulv3487.2 kV=0.12 Vminpu=0.8 Vmaxpu=1.2 model=1 kW=3.44520373572286 kvar=1.4184167138400507 Phases=1 yearly=res_kw_2053_pu

New Load.load_p13ulv3488_1 conn=wye bus1=p13ulv3488.1 kV=0.12 Vminpu=0.8 Vmaxpu=1.2 model=1 kW=6.1737287494280215 kvar=1.6148221166610475 Phases=1 yearly=res_kw_10660_pu

New Load.load_p13ulv3488_2 conn=wye bus1=p13ulv3488.2 kV=0.12 Vminpu=0.8 Vmaxpu=1.2 model=1 kW=6.1737287494280215 kvar=1.6148221166610475 Phases=1 yearly=res_kw_10660_pu

New Load.load_p13ulv3489_1 conn=wye bus1=p13ulv3489.1 kV=0.12 Vminpu=0.8 Vmaxpu=1.2 model=1 kW=8.487789356605123 kvar=1.6644890411465327 Phases=1 yearly=res_kw_12849_pu

New Load.load_p13ulv3489_2 conn=wye bus1=p13ulv3489.2 kV=0.12 Vminpu=0.8 Vmaxpu=1.2 model=1 kW=8.487789356605123 kvar=1.6644890411465327 Phases=1 yearly=res_kw_12849_pu

New Load.load_p13ulv3490_1 conn=wye bus1=p13ulv3490.1 kV=0.12 Vminpu=0.8 Vmaxpu=1.2 model=1 kW=2.126452413906085 kvar=0.7635725277417109 Phases=1 yearly=res_kw_340_pu

New Load.load_p13ulv3490_2 conn=wye bus1=p13ulv3490.2 kV=0.12 Vminpu=0.8 Vmaxpu=1.2 model=1 kW=2.126452413906085 kvar=0.7635725277417109 Phases=1 yearly=res_kw_340_pu

New Load.load_p13ulv3491_1 conn=wye bus1=p13ulv3491.1 kV=0.12 Vminpu=0.8 Vmaxpu=1.2 model=1 kW=8.487789356605123 kvar=1.6644890411465327 Phases=1 yearly=res_kw_12849_pu

New Load.load_p13ulv3491_2 conn=wye bus1=p13ulv3491.2 kV=0.12 Vminpu=0.8 Vmaxpu=1.2 model=1 kW=8.487789356605123 kvar=1.6644890411465327 Phases=1 yearly=res_kw_12849_pu

New Load.load_p13ulv3492_1 conn=wye bus1=p13ulv3492.1 kV=0.12 Vminpu=0.8 Vmaxpu=1.2 model=1 kW=3.8249517279712286 kvar=0.9876552030064008 Phases=1 yearly=res_kw_3019_pu

New Load.load_p13ulv3492_2 conn=wye bus1=p13ulv3492.2 kV=0.12 Vminpu=0.8 Vmaxpu=1.2 model=1 kW=3.8249517279712286 kvar=0.9876552030064008 Phases=1 yearly=res_kw_3019_pu

New Load.load_p13ulv3493_1 conn=wye bus1=p13ulv3493.1 kV=0.12 Vminpu=0.8 Vmaxpu=1.2 model=1 kW=1.943629271056502 kvar=0.7833429138481941 Phases=1 yearly=res_kw_9131_pu

New Load.load_p13ulv3493_2 conn=wye bus1=p13ulv3493.2 kV=0.12 Vminpu=0.8 Vmaxpu=1.2 model=1 kW=1.943629271056502 kvar=0.7833429138481941 Phases=1 yearly=res_kw_9131_pu

New Load.load_p13ulv3494_1 conn=wye bus1=p13ulv3494.1 kV=0.12 Vminpu=0.8 Vmaxpu=1.2 model=1 kW=4.653017545986474 kvar=1.050503252698808 Phases=1 yearly=res_kw_4813_pu

New Load.load_p13ulv3494_2 conn=wye bus1=p13ulv3494.2 kV=0.12 Vminpu=0.8 Vmaxpu=1.2 model=1 kW=4.653017545986474 kvar=1.050503252698808 Phases=1 yearly=res_kw_4813_pu

New Load.load_p13ulv3495_1 conn=wye bus1=p13ulv3495.1 kV=0.12 Vminpu=0.8 Vmaxpu=1.2 model=1 kW=3.4477550901029463 kvar=0.48537613816094066 Phases=1 yearly=res_kw_8004_pu

New Load.load_p13ulv3495_2 conn=wye bus1=p13ulv3495.2 kV=0.12 Vminpu=0.8 Vmaxpu=1.2 model=1 kW=3.4477550901029463 kvar=0.48537613816094066 Phases=1 yearly=res_kw_8004_pu

New Load.load_p13ulv3496_1 conn=wye bus1=p13ulv3495.1 kV=0.12 Vminpu=0.8 Vmaxpu=1.2 model=1 kW=14.803618323475414 kvar=0.7690430116921039 Phases=1 yearly=res_kw_9305_pu

New Load.load_p13ulv3496_2 conn=wye bus1=p13ulv3495.2 kV=0.12 Vminpu=0.8 Vmaxpu=1.2 model=1 kW=14.803618323475414 kvar=0.7690430116921039 Phases=1 yearly=res_kw_9305_pu

New Load.load_p13ulv3497_1 conn=wye bus1=p13ulv3497.1 kV=0.12 Vminpu=0.8 Vmaxpu=1.2 model=1 kW=5.2844394308809175 kvar=1.0522712324848236 Phases=1 yearly=res_kw_4549_pu

New Load.load_p13ulv3497_2 conn=wye bus1=p13ulv3497.2 kV=0.12 Vminpu=0.8 Vmaxpu=1.2 model=1 kW=5.2844394308809175 kvar=1.0522712324848236 Phases=1 yearly=res_kw_4549_pu

New Load.load_p13ulv3498_1 conn=wye bus1=p13ulv3498.1 kV=0.12 Vminpu=0.8 Vmaxpu=1.2 model=1 kW=3.2887112128735323 kvar=0.8179021603182046 Phases=1 yearly=res_kw_119_pu

New Load.load_p13ulv3498_2 conn=wye bus1=p13ulv3498.2 kV=0.12 Vminpu=0.8 Vmaxpu=1.2 model=1 kW=3.2887112128735323 kvar=0.8179021603182046 Phases=1 yearly=res_kw_119_pu

New Load.load_p13ulv3499_1 conn=wye bus1=p13ulv3499.1 kV=0.12 Vminpu=0.8 Vmaxpu=1.2 model=1 kW=4.401403633464691 kvar=0.9681850093535511 Phases=1 yearly=res_kw_8060_pu

New Load.load_p13ulv3499_2 conn=wye bus1=p13ulv3499.2 kV=0.12 Vminpu=0.8 Vmaxpu=1.2 model=1 kW=4.401403633464691 kvar=0.9681850093535511 Phases=1 yearly=res_kw_8060_pu

New Load.load_p13ulv14552_1 conn=wye bus1=p13ulv14552.1 kV=0.12 Vminpu=0.8 Vmaxpu=1.2 model=1 kW=8.445320136712393 kvar=1.7057595747683787 Phases=1 yearly=res_kw_11483_pu

New Load.load_p13ulv14552_2 conn=wye bus1=p13ulv14552.2 kV=0.12 Vminpu=0.8 Vmaxpu=1.2 model=1 kW=8.445320136712393 kvar=1.7057595747683787 Phases=1 yearly=res_kw_11483_pu

New Load.load_p13ulv14553_1 conn=wye bus1=p13ulv14553.1 kV=0.12 Vminpu=0.8 Vmaxpu=1.2 model=1 kW=5.362179307885926 kvar=0.2715726031269967 Phases=1 yearly=res_kw_6510_pu

...